<?xml version="1.0" encoding="UTF-8"?>

<!-- generated on 2023-04-17 01:25:14.439746 by osmWebWizard.py UNKNOWN
<configuration>
    <allow-fringe.min-length value="1000.0"/>
    <begin value="0"/>
    <end value="3600"/>
    <fringe-factor value="5"/>
    <fringe-start-attributes value="departSpeed=&quot;max&quot;"/>
    <insertion-density value="1200.0"/>
    <lanes value="True"/>
    <min-distance.fringe value="10.0"/>
    <min-distance value="300.0"/>
    <net-file value="/usr/local/Cellar/sumo/1.16.0/share/sumo/tools/2023-04-17-01-25-10/osm.net.xml.gz"/>
    <remove-loops value="True"/>
    <route-file value="/usr/local/Cellar/sumo/1.16.0/share/sumo/tools/2023-04-17-01-25-10/osm.passenger.rou.xml"/>
    <trip-attributes value="departLane=&quot;best&quot;"/>
    <output-trip-file value="/usr/local/Cellar/sumo/1.16.0/share/sumo/tools/2023-04-17-01-25-10/osm.passenger.trips.xml"/>
    <prefix value="veh"/>
    <validate value="True"/>
    <vehicle-class value="passenger"/>
</configuration>
-->

<!-- generated on 2023-04-17 01:25:13 by Eclipse SUMO duarouter Version 1.16.0
<configuration xmlns:xsi="http://www.w3.org/2001/XMLSchema-instance" xsi:noNamespaceSchemaLocation="http://sumo.dlr.de/xsd/duarouterConfiguration.xsd">

    <input>
        <net-file value="/usr/local/Cellar/sumo/1.16.0/share/sumo/tools/2023-04-17-01-25-10/osm.net.xml.gz"/>
        <route-files value="/usr/local/Cellar/sumo/1.16.0/share/sumo/tools/2023-04-17-01-25-10/osm.passenger.trips.xml"/>
    </input>

    <output>
        <output-file value="/usr/local/Cellar/sumo/1.16.0/share/sumo/tools/2023-04-17-01-25-10/osm.passenger.trips.xml.tmp"/>
        <alternatives-output value="NUL"/>
        <write-trips value="true"/>
    </output>

    <processing>
        <remove-loops value="true"/>
    </processing>

    <time>
        <begin value="0"/>
        <end value="3600"/>
    </time>

    <report>
        <no-warnings value="true"/>
        <ignore-errors value="true"/>
        <no-step-log value="true"/>
    </report>

</configuration>
-->

<routes xmlns:xsi="http://www.w3.org/2001/XMLSchema-instance" xsi:noNamespaceSchemaLocation="http://sumo.dlr.de/xsd/routes_file.xsd">
    <vType id="veh_passenger" vClass="passenger"/>
    <trip id="veh0" type="veh_passenger" depart="0.00" departLane="best" from="-25056937#2" to="1155039465#2"/>
    <trip id="veh1" type="veh_passenger" depart="0.36" departLane="best" from="-620277752#0" to="-326536062#2"/>
    <trip id="veh2" type="veh_passenger" depart="0.71" departLane="best" departSpeed="max" from="27351787#0" to="27351750#10"/>
    <trip id="veh3" type="veh_passenger" depart="1.07" departLane="best" from="55531105#3" to="-155217899"/>
    <trip id="veh4" type="veh_passenger" depart="1.42" departLane="best" from="1097652313#1" to="1155039465#3"/>
    <trip id="veh5" type="veh_passenger" depart="1.78" departLane="best" from="-1155039465#2" to="26318625#8"/>
    <trip id="veh6" type="veh_passenger" depart="2.13" departLane="best" from="-25056937#4" to="155217910#2"/>
    <trip id="veh7" type="veh_passenger" depart="2.49" departLane="best" from="30098149#3" to="24210128#2"/>
    <trip id="veh8" type="veh_passenger" depart="2.84" departLane="best" from="326536062#3" to="-1074414519#0"/>
    <trip id="veh9" type="veh_passenger" depart="3.20" departLane="best" from="326536062#2" to="27351750#4"/>
    <trip id="veh10" type="veh_passenger" depart="3.55" departLane="best" from="913430673#1" to="-1074414519#0"/>
    <trip id="veh12" type="veh_passenger" depart="4.26" departLane="best" departSpeed="max" from="155217899" to="913430674#1"/>
    <trip id="veh13" type="veh_passenger" depart="4.62" departLane="best" departSpeed="max" from="1097652313#0" to="155217910#5"/>
    <trip id="veh14" type="veh_passenger" depart="4.97" departLane="best" departSpeed="max" from="406407948#0" to="25056937#4"/>
    <trip id="veh15" type="veh_passenger" depart="5.33" departLane="best" from="-326536062#1" to="-620277752#2"/>
    <trip id="veh16" type="veh_passenger" depart="5.68" departLane="best" from="-148878111#6" to="-326536062#3"/>
    <trip id="veh19" type="veh_passenger" depart="6.75" departLane="best" from="913433835#1" to="25056937#5"/>
    <trip id="veh20" type="veh_passenger" depart="7.11" departLane="best" departSpeed="max" from="155217899" to="27351750#11"/>
    <trip id="veh22" type="veh_passenger" depart="7.82" departLane="best" from="55531105#1" to="-913870853#0"/>
    <trip id="veh23" type="veh_passenger" depart="8.17" departLane="best" from="26318625#2" to="1097657088#1"/>
    <trip id="veh24" type="veh_passenger" depart="8.53" departLane="best" from="-620277752#1" to="1155039465#2"/>
    <trip id="veh25" type="veh_passenger" depart="8.88" departLane="best" departSpeed="max" from="155217899" to="-406407948#0"/>
    <trip id="veh26" type="veh_passenger" depart="9.24" departLane="best" from="155217910#5" to="620277752#3"/>
    <trip id="veh27" type="veh_passenger" depart="9.59" departLane="best" departSpeed="max" from="1097652313#0" to="-326536062#1"/>
    <trip id="veh28" type="veh_passenger" depart="9.95" departLane="best" from="913870853#0" to="148878111#5"/>
    <trip id="veh29" type="veh_passenger" depart="10.30" departLane="best" from="-155217640#1" to="148878111#3"/>
    <trip id="veh30" type="veh_passenger" depart="10.66" departLane="best" departSpeed="max" from="-155217640#4" to="25056937#5"/>
    <trip id="veh31" type="veh_passenger" depart="11.01" departLane="best" from="30098149#7" to="1152518023#1"/>
    <trip id="veh34" type="veh_passenger" depart="12.08" departLane="best" from="406407948#2" to="25056937#5"/>
    <trip id="veh35" type="veh_passenger" depart="12.43" departLane="best" departSpeed="max" from="-155217640#4" to="1152518023#1"/>
    <trip id="veh36" type="veh_passenger" depart="12.79" departLane="best" from="55531105#1" to="-406407948#0"/>
    <trip id="veh37" type="veh_passenger" depart="13.15" departLane="best" departSpeed="max" from="-620277752#4" to="25056937#5"/>
    <trip id="veh38" type="veh_passenger" depart="13.50" departLane="best" from="278057707#1" to="155217640#4"/>
    <trip id="veh40" type="veh_passenger" depart="14.21" departLane="best" from="55531105#1" to="406407948#3"/>
    <trip id="veh41" type="veh_passenger" depart="14.57" departLane="best" departSpeed="max" from="-620277752#4" to="-148878111#5"/>
    <trip id="veh43" type="veh_passenger" depart="15.28" departLane="best" from="-15440228#2" to="148878110#2"/>
    <trip id="veh44" type="veh_passenger" depart="15.63" departLane="best" from="148878111#4" to="28415925#3"/>
    <trip id="veh46" type="veh_passenger" depart="16.34" departLane="best" from="1097652313#1" to="-326536062#1"/>
    <trip id="veh48" type="veh_passenger" depart="17.05" departLane="best" from="148878111#4" to="25056937#5"/>
    <trip id="veh49" type="veh_passenger" depart="17.41" departLane="best" from="326536062#1" to="620277752#4"/>
    <trip id="veh50" type="veh_passenger" depart="17.76" departLane="best" from="513534122#0" to="-155217640#1"/>
    <trip id="veh51" type="veh_passenger" depart="18.12" departLane="best" from="326536062#2" to="26318625#8"/>
    <trip id="veh52" type="veh_passenger" depart="18.47" departLane="best" from="-26318625#8" to="-155217910#2"/>
    <trip id="veh53" type="veh_passenger" depart="18.83" departLane="best" from="326536062#2" to="26318625#6"/>
    <trip id="veh54" type="veh_passenger" depart="19.19" departLane="best" from="-155217640#2" to="1152518023#1"/>
    <trip id="veh55" type="veh_passenger" depart="19.54" departLane="best" from="1097652313#1" to="148878110#0"/>
    <trip id="veh56" type="veh_passenger" depart="19.90" departLane="best" departSpeed="max" from="27351787#0" to="27351750#1"/>
    <trip id="veh57" type="veh_passenger" depart="20.25" departLane="best" from="913433835#0" to="-155217899"/>
    <trip id="veh58" type="veh_passenger" depart="20.61" departLane="best" departSpeed="max" from="1097652313#0" to="1074414519#0"/>
    <trip id="veh59" type="veh_passenger" depart="20.96" departLane="best" from="513534122#0" to="-406407948#0"/>
    <trip id="veh60" type="veh_passenger" depart="21.32" departLane="best" from="-26318625#1" to="1152518023#1"/>
    <trip id="veh61" type="veh_passenger" depart="21.67" departLane="best" departSpeed="max" from="155217899" to="148878111#4"/>
    <trip id="veh63" type="veh_passenger" depart="22.38" departLane="best" from="406407948#1" to="-26317795#0"/>
    <trip id="veh64" type="veh_passenger" depart="22.74" departLane="best" from="-148878111#2" to="-326536062#1"/>
    <trip id="veh65" type="veh_passenger" depart="23.09" departLane="best" departSpeed="max" from="1097652313#0" to="-148878111#6"/>
    <trip id="veh67" type="veh_passenger" depart="23.80" departLane="best" from="-1100985386#1" to="1152518023#1"/>
    <trip id="veh69" type="veh_passenger" depart="24.51" departLane="best" from="-25056937#4" to="67342401#1"/>
    <trip id="veh70" type="veh_passenger" depart="24.87" departLane="best" from="913430674#0" to="24210128#1"/>
    <trip id="veh71" type="veh_passenger" depart="25.22" departLane="best" departSpeed="max" from="155217899" to="28415925#1"/>
    <trip id="veh72" type="veh_passenger" depart="25.58" departLane="best" from="-25056937#4" to="913430673#2"/>
    <trip id="veh73" type="veh_passenger" depart="25.94" departLane="best" from="-326536062#1" to="-155217899"/>
    <trip id="veh74" type="veh_passenger" depart="26.29" departLane="best" from="55531105#3" to="-406407948#0"/>
    <trip id="veh75" type="veh_passenger" depart="26.65" departLane="best" from="16509787#2" to="25056937#4"/>
    <trip id="veh76" type="veh_passenger" depart="27.00" departLane="best" from="326536062#2" to="1097657088#1"/>
    <trip id="veh77" type="veh_passenger" depart="27.36" departLane="best" from="-67342401#2" to="28415925#2"/>
    <trip id="veh78" type="veh_passenger" depart="27.71" departLane="best" from="-148878111#4" to="1155039465#2"/>
    <trip id="veh79" type="veh_passenger" depart="28.07" departLane="best" from="-148878111#5" to="-326536062#1"/>
    <trip id="veh81" type="veh_passenger" depart="28.78" departLane="best" from="26318625#1" to="-1074414519#0"/>
    <trip id="veh83" type="veh_passenger" depart="29.49" departLane="best" from="-155217910#5" to="-155217899"/>
    <trip id="veh85" type="veh_passenger" depart="30.20" departLane="best" from="-25056937#1" to="-406407948#0"/>
    <trip id="veh86" type="veh_passenger" depart="30.55" departLane="best" from="148878111#3" to="620277752#4"/>
    <trip id="veh87" type="veh_passenger" depart="30.91" departLane="best" from="406407948#1" to="-155217899"/>
    <trip id="veh88" type="veh_passenger" depart="31.26" departLane="best" from="1097652313#1" to="406407948#3"/>
    <trip id="veh89" type="veh_passenger" depart="31.62" departLane="best" from="-1074414519#0" to="28415925#3"/>
    <trip id="veh90" type="veh_passenger" depart="31.98" departLane="best" from="-25056937#1" to="-406407948#0"/>
    <trip id="veh91" type="veh_passenger" depart="32.33" departLane="best" departSpeed="max" from="27351787#0" to="155217910#3"/>
    <trip id="veh92" type="veh_passenger" depart="32.69" departLane="best" from="1097656732" to="1100985386#1"/>
    <trip id="veh93" type="veh_passenger" depart="33.04" departLane="best" from="55531105#4" to="155217910#2"/>
    <trip id="veh94" type="veh_passenger" depart="33.40" departLane="best" departSpeed="max" from="406407948#0" to="24210128#1"/>
    <trip id="veh95" type="veh_passenger" depart="33.75" departLane="best" from="-25056937#2" to="-155217910#1"/>
    <trip id="veh97" type="veh_passenger" depart="34.46" departLane="best" from="55531105#4" to="-30098149#7"/>
    <trip id="veh98" type="veh_passenger" depart="34.82" departLane="best" from="-326536062#3" to="-155217899"/>
    <trip id="veh100" type="veh_passenger" depart="35.53" departLane="best" departSpeed="max" from="1097652313#0" to="25056937#4"/>
    <trip id="veh101" type="veh_passenger" depart="35.88" departLane="best" from="-25056937#4" to="67342401#3"/>
    <trip id="veh102" type="veh_passenger" depart="36.24" departLane="best" from="513534122#0" to="913430674#1"/>
    <trip id="veh106" type="veh_passenger" depart="37.66" departLane="best" from="326536062#3" to="-406407948#1"/>
    <trip id="veh107" type="veh_passenger" depart="38.01" departLane="best" from="30098149#3" to="-155217899"/>
    <trip id="veh108" type="veh_passenger" depart="38.37" departLane="best" from="-1155039465#0" to="26318625#7"/>
    <trip id="veh110" type="veh_passenger" depart="39.08" departLane="best" from="913430674#0" to="-620277752#0"/>
    <trip id="veh111" type="veh_passenger" depart="39.44" departLane="best" from="-25056937#2" to="1100985386#1"/>
    <trip id="veh112" type="veh_passenger" depart="39.79" departLane="best" from="913433835#0" to="155217640#4"/>
    <trip id="veh113" type="veh_passenger" depart="40.15" departLane="best" from="845484249#0" to="-155217899"/>
    <trip id="veh114" type="veh_passenger" depart="40.50" departLane="best" departSpeed="max" from="-155217640#4" to="1152518023#1"/>
    <trip id="veh115" type="veh_passenger" depart="40.86" departLane="best" departSpeed="max" from="27351787#0" to="-913870853#0"/>
    <trip id="veh116" type="veh_passenger" depart="41.21" departLane="best" departSpeed="max" from="1097652313#0" to="16509787#4"/>
    <trip id="veh117" type="veh_passenger" depart="41.57" departLane="best" from="1074414519#0" to="67342401#2"/>
    <trip id="veh119" type="veh_passenger" depart="42.28" departLane="best" departSpeed="max" from="27351787#0" to="26318625#8"/>
    <trip id="veh121" type="veh_passenger" depart="42.99" departLane="best" departSpeed="max" from="1097652313#0" to="67342401#1"/>
    <trip id="veh122" type="veh_passenger" depart="43.34" departLane="best" from="-155217910#2" to="1152518023#1"/>
    <trip id="veh123" type="veh_passenger" depart="43.70" departLane="best" from="845484249#0" to="27351750#10"/>
    <trip id="veh124" type="veh_passenger" depart="44.05" departLane="best" departSpeed="max" from="-620277752#4" to="-155217910#3"/>
    <trip id="veh125" type="veh_passenger" depart="44.41" departLane="best" from="-26318625#2" to="148878110#0"/>
    <trip id="veh127" type="veh_passenger" depart="45.12" departLane="best" from="1155039465#3" to="620277752#4"/>
    <trip id="veh128" type="veh_passenger" depart="45.48" departLane="best" from="326536062#1" to="-26317795#0"/>
    <trip id="veh129" type="veh_passenger" depart="45.83" departLane="best" from="326536062#4" to="28415925#2"/>
    <trip id="veh130" type="veh_passenger" depart="46.19" departLane="best" from="-26318625#7" to="-326536062#2"/>
    <trip id="veh131" type="veh_passenger" depart="46.54" departLane="best" from="326536062#3" to="148878110#2"/>
    <trip id="veh132" type="veh_passenger" depart="46.90" departLane="best" from="406407948#2" to="-155217640#1"/>
    <trip id="veh133" type="veh_passenger" depart="47.25" departLane="best" departSpeed="max" from="1097652313#0" to="25056937#5"/>
    <trip id="veh134" type="veh_passenger" depart="47.61" departLane="best" from="-148878111#4" to="-326536062#4"/>
    <trip id="veh135" type="veh_passenger" depart="47.96" departLane="best" from="26318625#2" to="-1074414519#0"/>
    <trip id="veh136" type="veh_passenger" depart="48.32" departLane="best" from="27351787#2" to="28415925#3"/>
    <trip id="veh137" type="veh_passenger" depart="48.67" departLane="best" departSpeed="max" from="-155217640#4" to="1152518023#1"/>
    <trip id="veh138" type="veh_passenger" depart="49.03" departLane="best" departSpeed="max" from="-25056937#6" to="913430673#1"/>
    <trip id="veh139" type="veh_passenger" depart="49.38" departLane="best" from="155217640#2" to="-148878111#4"/>
    <trip id="veh143" type="veh_passenger" depart="50.80" departLane="best" departSpeed="max" from="406407948#0" to="-155217910#3"/>
    <trip id="veh144" type="veh_passenger" depart="51.16" departLane="best" from="1155039465#3" to="-406407948#0"/>
    <trip id="veh145" type="veh_passenger" depart="51.52" departLane="best" from="326536062#3" to="25056937#5"/>
    <trip id="veh146" type="veh_passenger" depart="51.87" departLane="best" from="278057707#2" to="15440228#2"/>
    <trip id="veh149" type="veh_passenger" depart="52.94" departLane="best" departSpeed="max" from="155217899" to="155217910#5"/>
    <trip id="veh150" type="veh_passenger" depart="53.29" departLane="best" from="-326536062#1" to="27351750#3"/>
    <trip id="veh151" type="veh_passenger" depart="53.65" departLane="best" from="27351750#4" to="-15440228#1"/>
    <trip id="veh152" type="veh_passenger" depart="54.00" departLane="best" departSpeed="max" from="1097652313#0" to="155217910#1"/>
    <trip id="veh153" type="veh_passenger" depart="54.36" departLane="best" departSpeed="max" from="1097652313#0" to="-30098149#3"/>
    <trip id="veh154" type="veh_passenger" depart="54.71" departLane="best" from="1097652313#1" to="620277752#4"/>
    <trip id="veh155" type="veh_passenger" depart="55.07" departLane="best" from="406407948#3" to="28415925#3"/>
    <trip id="veh156" type="veh_passenger" depart="55.42" departLane="best" departSpeed="max" from="1097652313#0" to="1074414519#0"/>
    <trip id="veh157" type="veh_passenger" depart="55.78" departLane="best" from="1097652313#1" to="28415925#1"/>
    <trip id="veh160" type="veh_passenger" depart="56.84" departLane="best" departSpeed="max" from="1097652313#0" to="1074414519#1"/>
    <trip id="veh162" type="veh_passenger" depart="57.56" departLane="best" departSpeed="max" from="1097652313#0" to="16509787#2"/>
    <trip id="veh163" type="veh_passenger" depart="57.91" departLane="best" from="-1155039465#2" to="25056937#5"/>
    <trip id="veh166" type="veh_passenger" depart="58.98" departLane="best" from="27351787#2" to="-406407948#3"/>
    <trip id="veh167" type="veh_passenger" depart="59.33" departLane="best" from="-1100985386#3" to="155217640#4"/>
    <trip id="veh168" type="veh_passenger" depart="59.69" departLane="best" from="913870853#0" to="-26317795#0"/>
    <trip id="veh169" type="veh_passenger" depart="60.04" departLane="best" from="-25056937#4" to="-30098149#3"/>
    <trip id="veh170" type="veh_passenger" depart="60.40" departLane="best" from="26318625#1" to="28415925#2"/>
    <trip id="veh171" type="veh_passenger" depart="60.75" departLane="best" from="845484249#2" to="-30098149#2"/>
    <trip id="veh172" type="veh_passenger" depart="61.11" departLane="best" from="-1155039465#0" to="25056937#2"/>
    <trip id="veh173" type="veh_passenger" depart="61.46" departLane="best" from="-155217910#2" to="26318625#8"/>
    <trip id="veh174" type="veh_passenger" depart="61.82" departLane="best" from="27351750#3" to="28415925#3"/>
    <trip id="veh175" type="veh_passenger" depart="62.17" departLane="best" from="27351787#1" to="-155217899"/>
    <trip id="veh176" type="veh_passenger" depart="62.53" departLane="best" from="913430673#1" to="1097657088#1"/>
    <trip id="veh177" type="veh_passenger" depart="62.88" departLane="best" from="27351750#6" to="-155217640#2"/>
    <trip id="veh178" type="veh_passenger" depart="63.24" departLane="best" from="27351750#11" to="25056937#5"/>
    <trip id="veh179" type="veh_passenger" depart="63.59" departLane="best" departSpeed="max" from="-155217640#4" to="28415925#3"/>
    <trip id="veh180" type="veh_passenger" depart="63.95" departLane="best" from="406407948#2" to="24210128#3"/>
    <trip id="veh181" type="veh_passenger" depart="64.31" departLane="best" from="30098149#2" to="-26317795#0"/>
    <trip id="veh182" type="veh_passenger" depart="64.66" departLane="best" from="-25056937#1" to="406407948#2"/>
    <trip id="veh183" type="veh_passenger" depart="65.02" departLane="best" from="27351750#4" to="1152518023#1"/>
    <trip id="veh184" type="veh_passenger" depart="65.37" departLane="best" departSpeed="max" from="27351787#0" to="913430674#0"/>
    <trip id="veh185" type="veh_passenger" depart="65.73" departLane="best" departSpeed="max" from="155217899" to="148878110#2"/>
    <trip id="veh188" type="veh_passenger" depart="66.79" departLane="best" departSpeed="max" from="406407948#0" to="-155217899"/>
    <trip id="veh189" type="veh_passenger" depart="67.15" departLane="best" from="55531105#1" to="-326536062#4"/>
    <trip id="veh190" type="veh_passenger" depart="67.50" departLane="best" from="-1155039465#0" to="25056937#2"/>
    <trip id="veh191" type="veh_passenger" depart="67.86" departLane="best" departSpeed="max" from="1097652313#0" to="1155039465#2"/>
    <trip id="veh192" type="veh_passenger" depart="68.21" departLane="best" from="-26318625#8" to="-326536062#2"/>
    <trip id="veh194" type="veh_passenger" depart="68.92" departLane="best" from="148878111#3" to="28415925#3"/>
    <trip id="veh195" type="veh_passenger" depart="69.28" departLane="best" from="-148878111#3" to="-326536062#1"/>
    <trip id="veh196" type="veh_passenger" depart="69.63" departLane="best" from="27351750#12" to="67342401#3"/>
    <trip id="veh197" type="veh_passenger" depart="69.99" departLane="best" from="155217910#5" to="148878110#2"/>
    <trip id="veh198" type="veh_passenger" depart="70.35" departLane="best" departSpeed="max" from="155217899" to="1152518023#1"/>
    <trip id="veh200" type="veh_passenger" depart="71.06" departLane="best" from="-326536062#3" to="-155217899"/>
    <trip id="veh201" type="veh_passenger" depart="71.41" departLane="best" from="-26318625#2" to="-155217899"/>
    <trip id="veh202" type="veh_passenger" depart="71.77" departLane="best" departSpeed="max" from="155217899" to="28415925#3"/>
    <trip id="veh203" type="veh_passenger" depart="72.12" departLane="best" from="1074414519#1" to="-326536062#1"/>
    <trip id="veh205" type="veh_passenger" depart="72.83" departLane="best" from="-620277752#2" to="-155217899"/>
    <trip id="veh206" type="veh_passenger" depart="73.19" departLane="best" from="1074414519#1" to="1100985386#2"/>
    <trip id="veh207" type="veh_passenger" depart="73.54" departLane="best" departSpeed="max" from="155217899" to="-406407948#3"/>
    <trip id="veh208" type="veh_passenger" depart="73.90" departLane="best" from="513534122#1" to="16509787#4"/>
    <trip id="veh209" type="veh_passenger" depart="74.25" departLane="best" from="-1155039465#2" to="1152518023#1"/>
    <trip id="veh210" type="veh_passenger" depart="74.61" departLane="best" from="148878111#5" to="25056937#5"/>
    <trip id="veh211" type="veh_passenger" depart="74.96" departLane="best" departSpeed="max" from="-148878110#3" to="25056937#1"/>
    <trip id="veh212" type="veh_passenger" depart="75.32" departLane="best" departSpeed="max" from="155217899" to="-67342401#3"/>
    <trip id="veh213" type="veh_passenger" depart="75.67" departLane="best" from="913433835#1" to="-155217899"/>
    <trip id="veh214" type="veh_passenger" depart="76.03" departLane="best" from="278057707#2" to="25056937#1"/>
    <trip id="veh215" type="veh_passenger" depart="76.38" departLane="best" from="155217640#3" to="1152518023#1"/>
    <trip id="veh216" type="veh_passenger" depart="76.74" departLane="best" departSpeed="max" from="27351787#0" to="845484249#2"/>
    <trip id="veh217" type="veh_passenger" depart="77.10" departLane="best" from="26318625#3" to="25056937#3"/>
    <trip id="veh218" type="veh_passenger" depart="77.45" departLane="best" departSpeed="max" from="-25056937#6" to="-155217640#2"/>
    <trip id="veh219" type="veh_passenger" depart="77.81" departLane="best" from="-326536062#1" to="27351750#6"/>
    <trip id="veh220" type="veh_passenger" depart="78.16" departLane="best" from="30098149#3" to="25056937#5"/>
    <trip id="veh221" type="veh_passenger" depart="78.52" departLane="best" from="1097652313#1" to="155217910#2"/>
    <trip id="veh222" type="veh_passenger" depart="78.87" departLane="best" from="-25056937#4" to="620277752#4"/>
    <trip id="veh223" type="veh_passenger" depart="79.23" departLane="best" departSpeed="max" from="406407948#0" to="-155217640#1"/>
    <trip id="veh224" type="veh_passenger" depart="79.58" departLane="best" departSpeed="max" from="-25056937#6" to="67342401#4"/>
    <trip id="veh225" type="veh_passenger" depart="79.94" departLane="best" from="27351787#2" to="16509787#3"/>
    <trip id="veh226" type="veh_passenger" depart="80.29" departLane="best" from="-620277752#3" to="-155217899"/>
    <trip id="veh227" type="veh_passenger" depart="80.65" departLane="best" from="845484249#0" to="148878111#3"/>
    <trip id="veh228" type="veh_passenger" depart="81.00" departLane="best" from="148878111#4" to="-155217640#3"/>
    <trip id="veh229" type="veh_passenger" depart="81.36" departLane="best" departSpeed="max" from="-148878110#3" to="1152518023#1"/>
    <trip id="veh230" type="veh_passenger" depart="81.71" departLane="best" from="-67342401#4" to="-406407948#0"/>
    <trip id="veh231" type="veh_passenger" depart="82.07" departLane="best" departSpeed="max" from="-148878110#3" to="28415925#3"/>
    <trip id="veh232" type="veh_passenger" depart="82.42" departLane="best" from="155217910#5" to="25056937#5"/>
    <trip id="veh233" type="veh_passenger" depart="82.78" departLane="best" from="-148878111#3" to="-155217899"/>
    <trip id="veh235" type="veh_passenger" depart="83.49" departLane="best" departSpeed="max" from="1097652313#0" to="15440228#1"/>
    <trip id="veh236" type="veh_passenger" depart="83.85" departLane="best" from="913433835#1" to="26318625#4"/>
    <trip id="veh237" type="veh_passenger" depart="84.20" departLane="best" departSpeed="max" from="155217899" to="1152518023#1"/>
    <trip id="veh238" type="veh_passenger" depart="84.56" departLane="best" from="-26318625#1" to="1093643763"/>
    <trip id="veh239" type="veh_passenger" depart="84.91" departLane="best" from="27351787#4" to="25056937#5"/>
    <trip id="veh240" type="veh_passenger" depart="85.27" departLane="best" from="27351787#4" to="-30098149#3"/>
    <trip id="veh241" type="veh_passenger" depart="85.62" departLane="best" departSpeed="max" from="155217899" to="67342401#2"/>
    <trip id="veh244" type="veh_passenger" depart="86.69" departLane="best" from="-25056937#4" to="155217910#3"/>
    <trip id="veh245" type="veh_passenger" depart="87.04" departLane="best" from="913433835#1" to="620277752#4"/>
    <trip id="veh246" type="veh_passenger" depart="87.40" departLane="best" from="-1100985386#3" to="-155217899"/>
    <trip id="veh247" type="veh_passenger" depart="87.75" departLane="best" departSpeed="max" from="406407948#0" to="148878111#3"/>
    <trip id="veh248" type="veh_passenger" depart="88.11" departLane="best" departSpeed="max" from="155217899" to="1097657088#0"/>
    <trip id="veh249" type="veh_passenger" depart="88.46" departLane="best" from="-620277752#0" to="-326536062#1"/>
    <trip id="veh250" type="veh_passenger" depart="88.82" departLane="best" departSpeed="max" from="1097652313#0" to="67342401#4"/>
    <trip id="veh251" type="veh_passenger" depart="89.17" departLane="best" from="15440228#1" to="-326536062#4"/>
    <trip id="veh252" type="veh_passenger" depart="89.53" departLane="best" from="16509787#0" to="-913870853#0"/>
    <trip id="veh253" type="veh_passenger" depart="89.89" departLane="best" departSpeed="max" from="155217899" to="-26317795#0"/>
    <trip id="veh254" type="veh_passenger" depart="90.24" departLane="best" departSpeed="max" from="155217899" to="155217910#1"/>
    <trip id="veh256" type="veh_passenger" depart="90.95" departLane="best" from="27351787#1" to="27351750#5"/>
    <trip id="veh257" type="veh_passenger" depart="91.31" departLane="best" from="326536062#3" to="1097657088#0"/>
    <trip id="veh258" type="veh_passenger" depart="91.66" departLane="best" from="913433835#0" to="148878111#2"/>
    <trip id="veh259" type="veh_passenger" depart="92.02" departLane="best" departSpeed="max" from="-148878110#3" to="148878111#4"/>
    <trip id="veh261" type="veh_passenger" depart="92.73" departLane="best" from="27351750#9" to="1100985386#3"/>
    <trip id="veh262" type="veh_passenger" depart="93.08" departLane="best" from="26318625#2" to="25056937#3"/>
    <trip id="veh265" type="veh_passenger" depart="94.15" departLane="best" departSpeed="max" from="1097652313#0" to="-913870853#0"/>
    <trip id="veh266" type="veh_passenger" depart="94.50" departLane="best" from="27351750#7" to="28415925#3"/>
    <trip id="veh267" type="veh_passenger" depart="94.86" departLane="best" from="513534122#1" to="148878110#0"/>
    <trip id="veh268" type="veh_passenger" depart="95.21" departLane="best" from="148878111#3" to="25056937#5"/>
    <trip id="veh269" type="veh_passenger" depart="95.57" departLane="best" from="-620277752#3" to="-913870853#0"/>
    <trip id="veh270" type="veh_passenger" depart="95.93" departLane="best" from="27351787#1" to="1152518023#1"/>
    <trip id="veh271" type="veh_passenger" depart="96.28" departLane="best" from="-155217640#3" to="25056937#5"/>
    <trip id="veh272" type="veh_passenger" depart="96.64" departLane="best" departSpeed="max" from="-148878110#3" to="-326536062#1"/>
    <trip id="veh274" type="veh_passenger" depart="97.35" departLane="best" from="-25056937#1" to="155217640#3"/>
    <trip id="veh275" type="veh_passenger" depart="97.70" departLane="best" departSpeed="max" from="155217899" to="326536062#1"/>
    <trip id="veh276" type="veh_passenger" depart="98.06" departLane="best" departSpeed="max" from="-25056937#6" to="-155217640#3"/>
    <trip id="veh277" type="veh_passenger" depart="98.41" departLane="best" from="326536062#2" to="620277752#4"/>
    <trip id="veh278" type="veh_passenger" depart="98.77" departLane="best" from="-25056937#1" to="1155039465#3"/>
    <trip id="veh279" type="veh_passenger" depart="99.12" departLane="best" from="326536062#4" to="-406407948#0"/>
    <trip id="veh280" type="veh_passenger" depart="99.48" departLane="best" from="-25056937#4" to="1152518023#1"/>
    <trip id="veh282" type="veh_passenger" depart="100.19" departLane="best" from="155217910#1" to="16509787#4"/>