<?xml version="1.0" encoding="UTF-8"?>

<!-- generated on 2023-05-21 23:25:37.915773 by osmWebWizard.py UNKNOWN
<configuration>
    <allow-fringe.min-length value="1000.0"/>
    <begin value="0"/>
    <end value="300"/>
    <fringe-factor value="5"/>
    <fringe-start-attributes value="departSpeed=&quot;max&quot;"/>
    <insertion-density value="20.0"/>
    <lanes value="True"/>
    <min-distance.fringe value="10.0"/>
    <min-distance value="300.0"/>
    <net-file value="/Users/stepa-kos/Desktop/practice/sumo/share/sumo/tools/2023-05-21-23-25-33/osm.net.xml.gz"/>
    <remove-loops value="True"/>
    <route-file value="/Users/stepa-kos/Desktop/practice/sumo/share/sumo/tools/2023-05-21-23-25-33/osm.passenger.rou.xml"/>
    <trip-attributes value="departLane=&quot;best&quot;"/>
    <output-trip-file value="/Users/stepa-kos/Desktop/practice/sumo/share/sumo/tools/2023-05-21-23-25-33/osm.passenger.trips.xml"/>
    <prefix value="veh"/>
    <validate value="True"/>
    <vehicle-class value="passenger"/>
</configuration>
-->

<!-- generated on 2023-05-21 23:25:37 by Eclipse SUMO duarouter Version 1.17.0
<configuration xmlns:xsi="http://www.w3.org/2001/XMLSchema-instance" xsi:noNamespaceSchemaLocation="http://sumo.dlr.de/xsd/duarouterConfiguration.xsd">

    <input>
        <net-file value="/Users/stepa-kos/Desktop/practice/sumo/share/sumo/tools/2023-05-21-23-25-33/osm.net.xml.gz"/>
        <route-files value="/Users/stepa-kos/Desktop/practice/sumo/share/sumo/tools/2023-05-21-23-25-33/osm.passenger.trips.xml"/>
    </input>

    <output>
        <output-file value="/Users/stepa-kos/Desktop/practice/sumo/share/sumo/tools/2023-05-21-23-25-33/osm.passenger.trips.xml.tmp"/>
        <alternatives-output value="NUL"/>
        <write-trips value="true"/>
    </output>

    <processing>
        <remove-loops value="true"/>
    </processing>

    <time>
        <begin value="0"/>
        <end value="300"/>
    </time>

    <report>
        <no-warnings value="true"/>
        <ignore-errors value="true"/>
        <no-step-log value="true"/>
    </report>

</configuration>
-->

<routes xmlns:xsi="http://www.w3.org/2001/XMLSchema-instance" xsi:noNamespaceSchemaLocation="http://sumo.dlr.de/xsd/routes_file.xsd">
    <vType id="veh_passenger" vClass="passenger"/>
    <trip id="veh0" type="veh_passenger" depart="0.00" departLane="best" from="-945100592" to="67342401#4"/>
    <trip id="veh1" type="veh_passenger" depart="14.88" departLane="best" from="1097657402#1" to="1100985386#4"/>
    <trip id="veh2" type="veh_passenger" depart="29.77" departLane="best" from="-1100985386#3" to="-620277752#0"/>
    <trip id="veh3" type="veh_passenger" depart="44.65" departLane="best" from="-620277752#1" to="1169030612#0"/>
    <trip id="veh4" type="veh_passenger" depart="59.54" departLane="best" departSpeed="max" from="1097652313#0" to="-318742163#1"/>
    <trip id="veh5" type="veh_passenger" depart="74.42" departLane="best" from="913430674#0" to="1096753062#1"/>
    <trip id="veh6" type="veh_passenger" depart="89.31" departLane="best" departSpeed="max" from="-148878110#1" to="26318625#3"/>
    <trip id="veh7" type="veh_passenger" depart="104.19" departLane="best" departSpeed="max" from="406422226#0" to="1169030613#1"/>
    <trip id="veh8" type="veh_passenger" depart="119.08" departLane="best" from="-30330099#1" to="-26318625#3"/>
    <trip id="veh9" type="veh_passenger" depart="133.96" departLane="best" departSpeed="max" from="1168957215#0" to="-913431239#2"/>
    <trip id="veh10" type="veh_passenger" depart="148.85" departLane="best" from="1097652313#2" to="1168957215#3"/>
    <trip id="veh11" type="veh_passenger" depart="163.73" departLane="best" from="406407948#5" to="1169030619#2"/>
    <trip id="veh12" type="veh_passenger" depart="178.62" departLane="best" from="513534122#0" to="1168957216#4"/>
    <trip id="veh14" type="veh_passenger" depart="208.39" departLane="best" departSpeed="max" from="-1157988188#1" to="-913431239#1"/>
    <trip id="veh15" type="veh_passenger" depart="223.27" departLane="best" from="15440228" to="1073253895#2"/>
    <trip id="veh17" type="veh_passenger" depart="253.04" departLane="best" departSpeed="max" from="1097652313#0" to="620277752#3"/>
    <trip id="veh18" type="veh_passenger" depart="267.93" departLane="best" from="913431239#0" to="843805747#1"/>
    <trip id="veh19" type="veh_passenger" depart="282.81" departLane="best" from="-27589844" to="26318625#3"/>
</routes>
