<?xml version="1.0" encoding="UTF-8"?>

<!-- generated on 2023-05-16 04:26:38.530501 by osmWebWizard.py UNKNOWN
<configuration>
    <allow-fringe.min-length value="1000.0"/>
    <begin value="0"/>
    <end value="300"/>
    <fringe-factor value="5"/>
    <fringe-start-attributes value="departSpeed=&quot;max&quot;"/>
    <insertion-density value="20.0"/>
    <lanes value="True"/>
    <min-distance.fringe value="10.0"/>
    <min-distance value="300.0"/>
    <net-file value="/Users/stepa-kos/Desktop/practice/sumo/share/sumo/tools/2023-05-16-04-26-35/osm.net.xml.gz"/>
    <remove-loops value="True"/>
    <route-file value="/Users/stepa-kos/Desktop/practice/sumo/share/sumo/tools/2023-05-16-04-26-35/osm.passenger.rou.xml"/>
    <trip-attributes value="departLane=&quot;best&quot;"/>
    <output-trip-file value="/Users/stepa-kos/Desktop/practice/sumo/share/sumo/tools/2023-05-16-04-26-35/osm.passenger.trips.xml"/>
    <prefix value="veh"/>
    <validate value="True"/>
    <vehicle-class value="passenger"/>
</configuration>
-->

<!-- generated on 2023-05-16 04:26:38 by Eclipse SUMO duarouter Version 1.17.0
<configuration xmlns:xsi="http://www.w3.org/2001/XMLSchema-instance" xsi:noNamespaceSchemaLocation="http://sumo.dlr.de/xsd/duarouterConfiguration.xsd">

    <input>
        <net-file value="/Users/stepa-kos/Desktop/practice/sumo/share/sumo/tools/2023-05-16-04-26-35/osm.net.xml.gz"/>
        <route-files value="/Users/stepa-kos/Desktop/practice/sumo/share/sumo/tools/2023-05-16-04-26-35/osm.passenger.trips.xml"/>
    </input>

    <output>
        <output-file value="/Users/stepa-kos/Desktop/practice/sumo/share/sumo/tools/2023-05-16-04-26-35/osm.passenger.trips.xml.tmp"/>
        <alternatives-output value="NUL"/>
        <write-trips value="true"/>
    </output>

    <processing>
        <remove-loops value="true"/>
    </processing>

    <time>
        <begin value="0"/>
        <end value="300"/>
    </time>

    <report>
        <no-warnings value="true"/>
        <ignore-errors value="true"/>
        <no-step-log value="true"/>
    </report>

</configuration>
-->

<routes xmlns:xsi="http://www.w3.org/2001/XMLSchema-instance" xsi:noNamespaceSchemaLocation="http://sumo.dlr.de/xsd/routes_file.xsd">
    <vType id="veh_passenger" vClass="passenger"/>
    <trip id="veh0" type="veh_passenger" depart="0.00" departLane="best" from="406407948#1" to="1169030618#2"/>
    <trip id="veh1" type="veh_passenger" depart="59.68" departLane="best" departSpeed="max" from="-1073253895" to="406407948#5"/>
    <trip id="veh2" type="veh_passenger" depart="119.36" departLane="best" departSpeed="max" from="-67342401#2" to="-406407948#0"/>
    <trip id="veh3" type="veh_passenger" depart="179.04" departLane="best" from="913430673#1" to="1100985386#2"/>
    <trip id="veh4" type="veh_passenger" depart="238.72" departLane="best" departSpeed="max" from="-1100985386#3" to="-30098149#2"/>
    <trip id="veh5" type="veh_passenger" depart="298.40" departLane="best" from="406407948#2" to="1073253895"/>
</routes>
