<?xml version="1.0" encoding="UTF-8"?>

<!-- generated on 2023-04-17 23:57:05.025574 by osmWebWizard.py UNKNOWN
<configuration>
    <allow-fringe.min-length value="1000.0"/>
    <begin value="0"/>
    <end value="3600"/>
    <fringe-factor value="5"/>
    <fringe-start-attributes value="departSpeed=&quot;max&quot;"/>
    <insertion-density value="100.0"/>
    <lanes value="True"/>
    <min-distance.fringe value="10.0"/>
    <min-distance value="300.0"/>
    <net-file value="/usr/local/Cellar/sumo/1.16.0/share/sumo/tools/2023-04-17-23-57-01/osm.net.xml.gz"/>
    <remove-loops value="True"/>
    <route-file value="/usr/local/Cellar/sumo/1.16.0/share/sumo/tools/2023-04-17-23-57-01/osm.passenger.rou.xml"/>
    <trip-attributes value="departLane=&quot;best&quot;"/>
    <output-trip-file value="/usr/local/Cellar/sumo/1.16.0/share/sumo/tools/2023-04-17-23-57-01/osm.passenger.trips.xml"/>
    <prefix value="veh"/>
    <validate value="True"/>
    <vehicle-class value="passenger"/>
</configuration>
-->

<!-- generated on 2023-04-17 23:57:04 by Eclipse SUMO duarouter Version 1.16.0
<configuration xmlns:xsi="http://www.w3.org/2001/XMLSchema-instance" xsi:noNamespaceSchemaLocation="http://sumo.dlr.de/xsd/duarouterConfiguration.xsd">

    <input>
        <net-file value="/usr/local/Cellar/sumo/1.16.0/share/sumo/tools/2023-04-17-23-57-01/osm.net.xml.gz"/>
        <route-files value="/usr/local/Cellar/sumo/1.16.0/share/sumo/tools/2023-04-17-23-57-01/osm.passenger.trips.xml"/>
    </input>

    <output>
        <output-file value="/usr/local/Cellar/sumo/1.16.0/share/sumo/tools/2023-04-17-23-57-01/osm.passenger.trips.xml.tmp"/>
        <alternatives-output value="NUL"/>
        <write-trips value="true"/>
    </output>

    <processing>
        <remove-loops value="true"/>
    </processing>

    <time>
        <begin value="0"/>
        <end value="3600"/>
    </time>

    <report>
        <no-warnings value="true"/>
        <ignore-errors value="true"/>
        <no-step-log value="true"/>
    </report>

</configuration>
-->

<routes xmlns:xsi="http://www.w3.org/2001/XMLSchema-instance" xsi:noNamespaceSchemaLocation="http://sumo.dlr.de/xsd/routes_file.xsd">
    <vType id="veh_passenger" vClass="passenger"/>
    <trip id="veh0" type="veh_passenger" depart="0.00" departLane="best" from="-27589844" to="24210128#3"/>
    <trip id="veh1" type="veh_passenger" depart="4.46" departLane="best" from="30098149#7" to="1152518023#1"/>
    <trip id="veh3" type="veh_passenger" depart="13.38" departLane="best" from="30098149#7" to="148878111#6"/>
    <trip id="veh4" type="veh_passenger" depart="17.84" departLane="best" from="326536062#4" to="1073253895#1"/>
    <trip id="veh5" type="veh_passenger" depart="22.30" departLane="best" from="326536062#3" to="26318427"/>
    <trip id="veh6" type="veh_passenger" depart="26.76" departLane="best" from="-913870853#0" to="-155217899"/>
    <trip id="veh7" type="veh_passenger" depart="31.22" departLane="best" departSpeed="max" from="406422226#0" to="-155217640#2"/>
    <trip id="veh8" type="veh_passenger" depart="35.68" departLane="best" from="326536062#3" to="26318625#8"/>
    <trip id="veh10" type="veh_passenger" depart="44.60" departLane="best" departSpeed="max" from="-1157988188#1" to="-30098149#7"/>
    <trip id="veh11" type="veh_passenger" depart="49.06" departLane="best" from="-148878111#6" to="-326536062#2"/>
    <trip id="veh13" type="veh_passenger" depart="57.98" departLane="best" from="-1073253895#1" to="-26318625#6"/>
    <trip id="veh15" type="veh_passenger" depart="66.90" departLane="best" departSpeed="max" from="-26318427" to="-26318625#8"/>
    <trip id="veh16" type="veh_passenger" depart="71.36" departLane="best" departSpeed="max" from="-26318427" to="-913431239#1"/>
    <trip id="veh17" type="veh_passenger" depart="75.82" departLane="best" from="-955388731#3" to="16509787#1"/>
    <trip id="veh19" type="veh_passenger" depart="84.74" departLane="best" departSpeed="max" from="406422226#0" to="27351750#9"/>
    <trip id="veh20" type="veh_passenger" depart="89.20" departLane="best" from="326536062#1" to="-1074414519#0"/>
    <trip id="veh22" type="veh_passenger" depart="98.12" departLane="best" departSpeed="max" from="155217899" to="-318742163#2"/>
    <trip id="veh23" type="veh_passenger" depart="102.58" departLane="best" departSpeed="max" from="155217899" to="620277752#4"/>
    <trip id="veh24" type="veh_passenger" depart="107.04" departLane="best" from="-955388731#5" to="1152518023#1"/>
    <trip id="veh25" type="veh_passenger" depart="111.50" departLane="best" from="-15440228#2" to="155217910#3"/>
    <trip id="veh26" type="veh_passenger" depart="115.96" departLane="best" from="326536062#2" to="1073253895#1"/>
    <trip id="veh27" type="veh_passenger" depart="120.42" departLane="best" departSpeed="max" from="-1157988188#1" to="-913431239#1"/>
    <trip id="veh28" type="veh_passenger" depart="124.88" departLane="best" from="913433835#1" to="-406407948#1"/>
    <trip id="veh29" type="veh_passenger" depart="129.34" departLane="best" from="-1073253895#2" to="-26318625#6"/>
    <trip id="veh30" type="veh_passenger" depart="133.80" departLane="best" from="-26318625#7" to="1155039465#3"/>
    <trip id="veh32" type="veh_passenger" depart="142.72" departLane="best" from="-620277752#4" to="-318742163#2"/>
    <trip id="veh33" type="veh_passenger" depart="147.18" departLane="best" departSpeed="max" from="845484249#0" to="-406407948#6"/>
    <trip id="veh34" type="veh_passenger" depart="151.64" departLane="best" from="16509787#0" to="-155217899"/>
    <trip id="veh35" type="veh_passenger" depart="156.10" departLane="best" from="-1073253895#0" to="-406422226#0"/>
    <trip id="veh36" type="veh_passenger" depart="160.56" departLane="best" from="-1100985386#2" to="913430673#1"/>
    <trip id="veh37" type="veh_passenger" depart="165.02" departLane="best" from="-620277752#4" to="-326536062#1"/>
    <trip id="veh38" type="veh_passenger" depart="169.48" departLane="best" from="-148878111#2" to="1124346996"/>
    <trip id="veh39" type="veh_passenger" depart="173.94" departLane="best" departSpeed="max" from="-1157988188#1" to="27351750#4"/>
    <trip id="veh40" type="veh_passenger" depart="178.40" departLane="best" from="1124346996" to="1157988188#1"/>
    <trip id="veh41" type="veh_passenger" depart="182.86" departLane="best" from="155217640#3" to="26318625#8"/>
    <trip id="veh42" type="veh_passenger" depart="187.32" departLane="best" from="-955388731#4" to="16509787#4"/>
    <trip id="veh43" type="veh_passenger" depart="191.78" departLane="best" from="913870853#0" to="148878111#6"/>
    <trip id="veh44" type="veh_passenger" depart="196.24" departLane="best" from="326536062#1" to="26318625#8"/>
    <trip id="veh45" type="veh_passenger" depart="200.70" departLane="best" departSpeed="max" from="-1157988188#1" to="-155217910#5"/>
    <trip id="veh46" type="veh_passenger" depart="205.16" departLane="best" from="-620277752#0" to="1155039465#3"/>
    <trip id="veh47" type="veh_passenger" depart="209.62" departLane="best" from="326536062#2" to="24210128#2"/>
    <trip id="veh48" type="veh_passenger" depart="214.08" departLane="best" from="30098149#3" to="-155217899"/>
    <trip id="veh49" type="veh_passenger" depart="218.54" departLane="best" from="913430674#0" to="148878111#2"/>
    <trip id="veh50" type="veh_passenger" depart="223.00" departLane="best" from="326536062#4" to="-26317795#0"/>
    <trip id="veh51" type="veh_passenger" depart="227.46" departLane="best" departSpeed="max" from="1074414519#0" to="1100985386#3"/>
    <trip id="veh52" type="veh_passenger" depart="231.92" departLane="best" from="27351750#7" to="24210128#3"/>
    <trip id="veh53" type="veh_passenger" depart="236.38" departLane="best" from="-955388731#2" to="-148878111#5"/>
    <trip id="veh54" type="veh_passenger" depart="240.84" departLane="best" from="-620277752#0" to="-318742163#0"/>
    <trip id="veh55" type="veh_passenger" depart="245.30" departLane="best" from="-26318625#4" to="1097657088#1"/>
    <trip id="veh56" type="veh_passenger" depart="249.76" departLane="best" departSpeed="max" from="1074414519#0" to="-326536062#2"/>
    <trip id="veh57" type="veh_passenger" depart="254.22" departLane="best" from="1074414519#1" to="-406407948#1"/>
    <trip id="veh58" type="veh_passenger" depart="258.68" departLane="best" departSpeed="max" from="155217899" to="-1074414519#0"/>
    <trip id="veh59" type="veh_passenger" depart="263.14" departLane="best" from="-955388731#5" to="326536062#2"/>
    <trip id="veh60" type="veh_passenger" depart="267.60" departLane="best" departSpeed="max" from="406422226#0" to="-155217899"/>
    <trip id="veh61" type="veh_passenger" depart="272.07" departLane="best" from="-1155039465#2" to="26318625#7"/>
    <trip id="veh62" type="veh_passenger" depart="276.53" departLane="best" departSpeed="max" from="1074414519#0" to="1100985386#2"/>
    <trip id="veh65" type="veh_passenger" depart="289.91" departLane="best" from="-913431239#2" to="955388731#4"/>
    <trip id="veh66" type="veh_passenger" depart="294.37" departLane="best" departSpeed="max" from="155217899" to="26318625#4"/>
    <trip id="veh67" type="veh_passenger" depart="298.83" departLane="best" from="1074414519#1" to="-406407948#1"/>
    <trip id="veh68" type="veh_passenger" depart="303.29" departLane="best" from="913433835#1" to="148878111#4"/>
    <trip id="veh69" type="veh_passenger" depart="307.75" departLane="best" from="155217640#4" to="27351750#11"/>
    <trip id="veh70" type="veh_passenger" depart="312.21" departLane="best" from="-1157988188#0" to="148878111#5"/>
    <trip id="veh72" type="veh_passenger" depart="321.13" departLane="best" departSpeed="max" from="-1157988188#1" to="-26317795#0"/>
    <trip id="veh73" type="veh_passenger" depart="325.59" departLane="best" from="155217910#2" to="24210128#3"/>
    <trip id="veh74" type="veh_passenger" depart="330.05" departLane="best" from="67342401#3" to="-318742163#0"/>
    <trip id="veh75" type="veh_passenger" depart="334.51" departLane="best" from="15440228#1" to="913430674#0"/>
    <trip id="veh76" type="veh_passenger" depart="338.97" departLane="best" from="-67342401#3" to="27351750#12"/>
    <trip id="veh77" type="veh_passenger" depart="343.43" departLane="best" departSpeed="max" from="-1157988188#1" to="1100985386#2"/>
    <trip id="veh78" type="veh_passenger" depart="347.89" departLane="best" departSpeed="max" from="-1157988188#1" to="26318625#7"/>
    <trip id="veh79" type="veh_passenger" depart="352.35" departLane="best" from="-67342401#1" to="-406422226#1"/>
    <trip id="veh80" type="veh_passenger" depart="356.81" departLane="best" from="-1073253895#1" to="-155217899"/>
    <trip id="veh81" type="veh_passenger" depart="361.27" departLane="best" from="406407948#7" to="26318427"/>
    <trip id="veh82" type="veh_passenger" depart="365.73" departLane="best" from="16509787#1" to="955388731#2"/>
    <trip id="veh84" type="veh_passenger" depart="374.65" departLane="best" from="15440228#1" to="1157988188#1"/>
    <trip id="veh85" type="veh_passenger" depart="379.11" departLane="best" from="-406407948#5" to="-155217640#2"/>
    <trip id="veh87" type="veh_passenger" depart="388.03" departLane="best" departSpeed="max" from="406422226#0" to="148878111#4"/>
    <trip id="veh88" type="veh_passenger" depart="392.49" departLane="best" departSpeed="max" from="1074414519#0" to="-326536062#2"/>
    <trip id="veh90" type="veh_passenger" depart="401.41" departLane="best" from="27589850#0" to="1157988188#1"/>
    <trip id="veh91" type="veh_passenger" depart="405.87" departLane="best" departSpeed="max" from="1074414519#0" to="1073253895#2"/>
    <trip id="veh92" type="veh_passenger" depart="410.33" departLane="best" departSpeed="max" from="-1157988188#1" to="620277752#0"/>
    <trip id="veh93" type="veh_passenger" depart="414.79" departLane="best" departSpeed="max" from="845484249#0" to="1157988188#0"/>
    <trip id="veh94" type="veh_passenger" depart="419.25" departLane="best" from="-67342401#1" to="620277752#4"/>
    <trip id="veh95" type="veh_passenger" depart="423.71" departLane="best" from="326536062#2" to="-406407948#1"/>
    <trip id="veh96" type="veh_passenger" depart="428.17" departLane="best" departSpeed="max" from="845484249#0" to="26318625#6"/>
    <trip id="veh97" type="veh_passenger" depart="432.63" departLane="best" from="326536062#3" to="-15440228#1"/>
    <trip id="veh98" type="veh_passenger" depart="437.09" departLane="best" from="318742163#2" to="620277752#0"/>
    <trip id="veh99" type="veh_passenger" depart="441.55" departLane="best" departSpeed="max" from="1074414519#0" to="155217910#1"/>
    <trip id="veh100" type="veh_passenger" depart="446.01" departLane="best" from="1074414519#1" to="913430673#2"/>
    <trip id="veh102" type="veh_passenger" depart="454.93" departLane="best" from="326536062#4" to="-406422226#1"/>
    <trip id="veh103" type="veh_passenger" depart="459.39" departLane="best" departSpeed="max" from="-1100985386#3" to="27351750#1"/>
    <trip id="veh104" type="veh_passenger" depart="463.85" departLane="best" from="326536062#3" to="-406407948#3"/>
    <trip id="veh105" type="veh_passenger" depart="468.31" departLane="best" from="326536062#1" to="-15440228#2"/>
    <trip id="veh108" type="veh_passenger" depart="481.69" departLane="best" from="155217910#5" to="1152518023#1"/>
    <trip id="veh109" type="veh_passenger" depart="486.15" departLane="best" from="-1073253895#0" to="913430673#1"/>
    <trip id="veh110" type="veh_passenger" depart="490.61" departLane="best" from="155217640#3" to="26318625#4"/>
    <trip id="veh111" type="veh_passenger" depart="495.07" departLane="best" from="27589850#0" to="24210128#2"/>
    <trip id="veh113" type="veh_passenger" depart="503.99" departLane="best" from="26318625#2" to="-406422226#0"/>
    <trip id="veh114" type="veh_passenger" depart="508.45" departLane="best" departSpeed="max" from="1074414519#0" to="-406407948#1"/>
    <trip id="veh115" type="veh_passenger" depart="512.91" departLane="best" from="155217640#4" to="1073253895#0"/>
    <trip id="veh116" type="veh_passenger" depart="517.37" departLane="best" from="913430674#1" to="24210128#3"/>
    <trip id="veh117" type="veh_passenger" depart="521.83" departLane="best" departSpeed="max" from="845484249#0" to="155217640#5"/>
    <trip id="veh118" type="veh_passenger" depart="526.29" departLane="best" from="-620277752#3" to="1157988188#1"/>
    <trip id="veh119" type="veh_passenger" depart="530.75" departLane="best" from="-1073253895#0" to="-326536062#3"/>
    <trip id="veh121" type="veh_passenger" depart="539.67" departLane="best" from="148878111#2" to="1152518023#1"/>
    <trip id="veh123" type="veh_passenger" depart="548.59" departLane="best" departSpeed="max" from="406422226#0" to="-1155039465#4"/>
    <trip id="veh124" type="veh_passenger" depart="553.05" departLane="best" departSpeed="max" from="1074414519#0" to="155217910#3"/>
    <trip id="veh125" type="veh_passenger" depart="557.51" departLane="best" from="26318625#6" to="26318427"/>
    <trip id="veh127" type="veh_passenger" depart="566.43" departLane="best" from="15440228#1" to="1073253895#1"/>
    <trip id="veh128" type="veh_passenger" depart="570.89" departLane="best" departSpeed="max" from="-26318427" to="-913431239#2"/>
    <trip id="veh130" type="veh_passenger" depart="579.81" departLane="best" from="-26318625#3" to="955388731#2"/>
    <trip id="veh131" type="veh_passenger" depart="584.27" departLane="best" from="155217910#2" to="-913431239#0"/>
    <trip id="veh132" type="veh_passenger" depart="588.73" departLane="best" from="27351750#5" to="1152518023#1"/>
    <trip id="veh133" type="veh_passenger" depart="593.19" departLane="best" from="-406407948#6" to="1157988188#1"/>
    <trip id="veh134" type="veh_passenger" depart="597.65" departLane="best" departSpeed="max" from="845484249#0" to="27351750#10"/>
    <trip id="veh135" type="veh_passenger" depart="602.11" departLane="best" from="326536062#3" to="16509787#0"/>
    <trip id="veh136" type="veh_passenger" depart="606.57" departLane="best" from="30098149#3" to="1152518023#1"/>
    <trip id="veh137" type="veh_passenger" depart="611.03" departLane="best" from="16509787#5" to="-326536062#2"/>
    <trip id="veh138" type="veh_passenger" depart="615.49" departLane="best" departSpeed="max" from="-1157988188#1" to="-326536062#3"/>
    <trip id="veh139" type="veh_passenger" depart="619.95" departLane="best" from="-406407948#5" to="-406422226#0"/>
    <trip id="veh140" type="veh_passenger" depart="624.41" departLane="best" from="326536062#1" to="26318427"/>
    <trip id="veh141" type="veh_passenger" depart="628.87" departLane="best" from="27351750#12" to="1155039465#2"/>
    <trip id="veh142" type="veh_passenger" depart="633.33" departLane="best" departSpeed="max" from="1074414519#0" to="1155039465#4"/>
    <trip id="veh143" type="veh_passenger" depart="637.79" departLane="best" departSpeed="max" from="1074414519#0" to="67342401#1"/>
    <trip id="veh144" type="veh_passenger" depart="642.25" departLane="best" departSpeed="max" from="155217899" to="26318427"/>
    <trip id="veh146" type="veh_passenger" depart="651.17" departLane="best" from="-955388731#3" to="27351750#2"/>
    <trip id="veh147" type="veh_passenger" depart="655.63" departLane="best" from="913870853#0" to="24210128#3"/>
    <trip id="veh148" type="veh_passenger" depart="660.09" departLane="best" departSpeed="max" from="1074414519#0" to="-155217899"/>
    <trip id="veh149" type="veh_passenger" depart="664.55" departLane="best" from="16509787#3" to="-1074414519#0"/>
    <trip id="veh151" type="veh_passenger" depart="673.47" departLane="best" departSpeed="max" from="-1100985386#3" to="16509787#2"/>
    <trip id="veh152" type="veh_passenger" depart="677.93" departLane="best" from="-1155039465#3" to="-913431239#1"/>
    <trip id="veh153" type="veh_passenger" depart="682.39" departLane="best" from="-30098149#2" to="-406422226#0"/>
    <trip id="veh154" type="veh_passenger" depart="686.85" departLane="best" from="27589850#3" to="326536062#1"/>
    <trip id="veh155" type="veh_passenger" depart="691.31" departLane="best" from="-1100985386#2" to="1155039465#4"/>
    <trip id="veh156" type="veh_passenger" depart="695.77" departLane="best" from="-955388731#5" to="-620277752#2"/>
    <trip id="veh159" type="veh_passenger" depart="709.15" departLane="best" from="913431239#0" to="-26318625#2"/>
    <trip id="veh160" type="veh_passenger" depart="713.61" departLane="best" departSpeed="max" from="-1100985386#3" to="-155217899"/>
    <trip id="veh161" type="veh_passenger" depart="718.07" departLane="best" from="-155217640#4" to="24210128#2"/>
    <trip id="veh162" type="veh_passenger" depart="722.53" departLane="best" departSpeed="max" from="155217899" to="26318625#8"/>
    <trip id="veh163" type="veh_passenger" depart="726.99" departLane="best" departSpeed="max" from="-26318427" to="155217640#3"/>
    <trip id="veh164" type="veh_passenger" depart="731.45" departLane="best" from="27589850#2" to="-155217640#2"/>
    <trip id="veh166" type="veh_passenger" depart="740.37" departLane="best" from="-67342401#2" to="24210128#3"/>
    <trip id="veh167" type="veh_passenger" depart="744.83" departLane="best" from="-913431239#2" to="955388731#1"/>
    <trip id="veh168" type="veh_passenger" depart="749.29" departLane="best" from="27351750#4" to="1157988188#0"/>
    <trip id="veh169" type="veh_passenger" depart="753.75" departLane="best" from="27351745#0" to="-155217910#3"/>
    <trip id="veh170" type="veh_passenger" depart="758.21" departLane="best" departSpeed="max" from="406422226#0" to="-155217640#1"/>
    <trip id="veh171" type="veh_passenger" depart="762.67" departLane="best" from="318742163#2" to="-620277752#2"/>
    <trip id="veh172" type="veh_passenger" depart="767.13" departLane="best" departSpeed="max" from="1074414519#0" to="67342401#4"/>
    <trip id="veh173" type="veh_passenger" depart="771.59" departLane="best" departSpeed="max" from="406422226#0" to="318742163#1"/>
    <trip id="veh176" type="veh_passenger" depart="784.97" departLane="best" from="27351750#2" to="-26317795#0"/>
    <trip id="veh178" type="veh_passenger" depart="793.89" departLane="best" from="155217640#3" to="1124346992#2"/>
    <trip id="veh179" type="veh_passenger" depart="798.35" departLane="best" from="-406407948#3" to="326536062#4"/>
    <trip id="veh180" type="veh_passenger" depart="802.81" departLane="best" from="67342401#1" to="-318742163#0"/>
    <trip id="veh181" type="veh_passenger" depart="807.27" departLane="best" departSpeed="max" from="406422226#0" to="-155217910#5"/>
    <trip id="veh182" type="veh_passenger" depart="811.73" departLane="best" from="-30098149#2" to="27589850#3"/>
    <trip id="veh183" type="veh_passenger" depart="816.20" departLane="best" from="913870853#0" to="-406422226#1"/>
    <trip id="veh184" type="veh_passenger" depart="820.66" departLane="best" from="27351750#11" to="-326536062#2"/>
    <trip id="veh185" type="veh_passenger" depart="825.12" departLane="best" from="-1073253895#2" to="913430674#1"/>
    <trip id="veh186" type="veh_passenger" depart="829.58" departLane="best" from="-148878111#4" to="27589844"/>
    <trip id="veh187" type="veh_passenger" depart="834.04" departLane="best" departSpeed="max" from="155217899" to="1100985386#3"/>
    <trip id="veh188" type="veh_passenger" depart="838.50" departLane="best" from="155217640#1" to="1073253895#2"/>
    <trip id="veh189" type="veh_passenger" depart="842.96" departLane="best" from="27351750#12" to="-326536062#1"/>
    <trip id="veh190" type="veh_passenger" depart="847.42" departLane="best" from="-26318625#4" to="-155217640#3"/>
    <trip id="veh191" type="veh_passenger" depart="851.88" departLane="best" from="155217640#2" to="27351750#4"/>
    <trip id="veh192" type="veh_passenger" depart="856.34" departLane="best" from="-1155039465#2" to="26318625#7"/>
    <trip id="veh193" type="veh_passenger" depart="860.80" departLane="best" from="913870853#0" to="1152518023#1"/>
    <trip id="veh194" type="veh_passenger" depart="865.26" departLane="best" from="406422226#1" to="148878111#6"/>
    <trip id="veh195" type="veh_passenger" depart="869.72" departLane="best" from="-26318625#1" to="-1074414519#0"/>
    <trip id="veh196" type="veh_passenger" depart="874.18" departLane="best" from="913433835#1" to="1157988188#1"/>
    <trip id="veh197" type="veh_passenger" depart="878.64" departLane="best" from="27351750#10" to="-155217640#5"/>
    <trip id="veh198" type="veh_passenger" depart="883.10" departLane="best" from="-620277752#2" to="1152518023#1"/>
    <trip id="veh199" type="veh_passenger" depart="887.56" departLane="best" from="-1100985386#2" to="1097657088#0"/>
    <trip id="veh200" type="veh_passenger" depart="892.02" departLane="best" from="913430674#1" to="1100985386#3"/>
    <trip id="veh201" type="veh_passenger" depart="896.48" departLane="best" from="-406407948#3" to="955388731#2"/>
    <trip id="veh202" type="veh_passenger" depart="900.94" departLane="best" departSpeed="max" from="-1157988188#1" to="-155217910#3"/>
    <trip id="veh203" type="veh_passenger" depart="905.40" departLane="best" from="-1155039465#4" to="-155217899"/>
    <trip id="veh204" type="veh_passenger" depart="909.86" departLane="best" departSpeed="max" from="155217899" to="-406407948#5"/>
    <trip id="veh205" type="veh_passenger" depart="914.32" departLane="best" from="326536062#1" to="-30098149#2"/>
    <trip id="veh206" type="veh_passenger" depart="918.78" departLane="best" from="1074414519#1" to="-406407948#1"/>
    <trip id="veh207" type="veh_passenger" depart="923.24" departLane="best" from="-955388731#3" to="-406407948#5"/>
    <trip id="veh208" type="veh_passenger" depart="927.70" departLane="best" from="16509787#3" to="-155217640#3"/>
    <trip id="veh209" type="veh_passenger" depart="932.16" departLane="best" from="-27589844" to="-26318625#6"/>
    <trip id="veh210" type="veh_passenger" depart="936.62" departLane="best" from="-26318625#1" to="-155217899"/>
    <trip id="veh211" type="veh_passenger" depart="941.08" departLane="best" departSpeed="max" from="-26318427" to="1157988188#0"/>
    <trip id="veh212" type="veh_passenger" depart="945.54" departLane="best" from="-1073253895#0" to="1097657088#1"/>
    <trip id="veh213" type="veh_passenger" depart="950.00" departLane="best" from="27351750#12" to="1100985386#1"/>
    <trip id="veh215" type="veh_passenger" depart="958.92" departLane="best" departSpeed="max" from="1074414519#0" to="1157988188#0"/>
    <trip id="veh217" type="veh_passenger" depart="967.84" departLane="best" departSpeed="max" from="-26318427" to="406407948#6"/>
    <trip id="veh218" type="veh_passenger" depart="972.30" departLane="best" from="27589850#2" to="148878111#1"/>
    <trip id="veh219" type="veh_passenger" depart="976.76" departLane="best" from="-620277752#0" to="155217640#4"/>
    <trip id="veh220" type="veh_passenger" depart="981.22" departLane="best" from="27351745#0" to="26318427"/>
    <trip id="veh221" type="veh_passenger" depart="985.68" departLane="best" from="913430674#1" to="1152518023#1"/>
    <trip id="veh222" type="veh_passenger" depart="990.14" departLane="best" departSpeed="max" from="-1100985386#3" to="-26317795#0"/>
    <trip id="veh224" type="veh_passenger" depart="999.06" departLane="best" departSpeed="max" from="406422226#0" to="148878111#3"/>
    <trip id="veh225" type="veh_passenger" depart="1003.52" departLane="best" from="-913431239#0" to="955388731#5"/>
    <trip id="veh226" type="veh_passenger" depart="1007.98" departLane="best" from="-26318625#4" to="-326536062#1"/>
    <trip id="veh227" type="veh_passenger" depart="1012.44" departLane="best" departSpeed="max" from="155217899" to="16509787#0"/>
    <trip id="veh228" type="veh_passenger" depart="1016.90" departLane="best" from="-1155039465#4" to="-148878111#4"/>
    <trip id="veh229" type="veh_passenger" depart="1021.36" departLane="best" from="-955388731#2" to="-406422226#0"/>
    <trip id="veh230" type="veh_passenger" depart="1025.82" departLane="best" from="913431239#2" to="26318427"/>
    <trip id="veh231" type="veh_passenger" depart="1030.28" departLane="best" from="326536062#4" to="1157988188#1"/>
    <trip id="veh234" type="veh_passenger" depart="1043.66" departLane="best" from="-955388731#3" to="24210128#1"/>
    <trip id="veh235" type="veh_passenger" depart="1048.12" departLane="best" from="27589850#4" to="-155217910#2"/>
    <trip id="veh236" type="veh_passenger" depart="1052.58" departLane="best" from="1074414519#1" to="26318427"/>
    <trip id="veh237" type="veh_passenger" depart="1057.04" departLane="best" from="16509787#0" to="318742163#0"/>
    <trip id="veh238" type="veh_passenger" depart="1061.50" departLane="best" departSpeed="max" from="-26318427" to="1157988188#1"/>
    <trip id="veh239" type="veh_passenger" depart="1065.96" departLane="best" departSpeed="max" from="155217899" to="148878111#4"/>
    <trip id="veh241" type="veh_passenger" depart="1074.88" departLane="best" from="406407948#7" to="1152518023#1"/>
    <trip id="veh242" type="veh_passenger" depart="1079.34" departLane="best" from="27351750#4" to="1152518023#1"/>
    <trip id="veh243" type="veh_passenger" depart="1083.80" departLane="best" from="-406407948#6" to="326536062#2"/>
    <trip id="veh244" type="veh_passenger" depart="1088.26" departLane="best" departSpeed="max" from="155217899" to="-913431239#2"/>
    <trip id="veh245" type="veh_passenger" depart="1092.72" departLane="best" from="845484249#2" to="1152518023#1"/>
    <trip id="veh246" type="veh_passenger" depart="1097.18" departLane="best" departSpeed="max" from="1074414519#0" to="913430674#0"/>
    <trip id="veh247" type="veh_passenger" depart="1101.64" departLane="best" from="148878111#3" to="318742163#1"/>
    <trip id="veh248" type="veh_passenger" depart="1106.10" departLane="best" departSpeed="max" from="155217899" to="955388731#5"/>
    <trip id="veh249" type="veh_passenger" depart="1110.56" departLane="best" from="1155039465#3" to="-155217899"/>
    <trip id="veh250" type="veh_passenger" depart="1115.02" departLane="best" from="155217640#3" to="-620277752#1"/>
    <trip id="veh251" type="veh_passenger" depart="1119.48" departLane="best" departSpeed="max" from="155217899" to="1157988188#0"/>
    <trip id="veh253" type="veh_passenger" depart="1128.40" departLane="best" from="26318625#3" to="26318427"/>
    <trip id="veh254" type="veh_passenger" depart="1132.86" departLane="best" departSpeed="max" from="155217899" to="-30098149#7"/>
    <trip id="veh255" type="veh_passenger" depart="1137.32" departLane="best" from="318742163#1" to="-1074414519#0"/>
    <trip id="veh256" type="veh_passenger" depart="1141.78" departLane="best" from="27589850#1" to="26318625#1"/>
    <trip id="veh257" type="veh_passenger" depart="1146.24" departLane="best" from="-955388731#1" to="1152518023#1"/>
    <trip id="veh258" type="veh_passenger" depart="1150.70" departLane="best" departSpeed="max" from="-1100985386#3" to="1152518023#1"/>
    <trip id="veh259" type="veh_passenger" depart="1155.16" departLane="best" departSpeed="max" from="155217899" to="-406407948#5"/>
    <trip id="veh260" type="veh_passenger" depart="1159.62" departLane="best" from="15440228#1" to="1100985386#2"/>
    <trip id="veh261" type="veh_passenger" depart="1164.08" departLane="best" from="27351750#5" to="955388731#5"/>
    <trip id="veh263" type="veh_passenger" depart="1173.00" departLane="best" from="913870853#0" to="26318427"/>
    <trip id="veh265" type="veh_passenger" depart="1181.92" departLane="best" departSpeed="max" from="406422226#0" to="-406407948#1"/>
    <trip id="veh267" type="veh_passenger" depart="1190.84" departLane="best" departSpeed="max" from="-1157988188#1" to="-155217910#5"/>
    <trip id="veh268" type="veh_passenger" depart="1195.30" departLane="best" from="845484249#2" to="955388731#5"/>