<?xml version="1.0" encoding="UTF-8"?>

<!-- generated on 2023-05-16 02:49:06.066469 by osmWebWizard.py UNKNOWN
<configuration>
    <begin value="0"/>
    <end value="200"/>
    <fringe-factor value="5"/>
    <fringe-start-attributes value="departSpeed=&quot;max&quot;"/>
    <insertion-density value="2.0"/>
    <min-distance.fringe value="10.0"/>
    <min-distance value="600.0"/>
    <net-file value="/Users/stepa-kos/Desktop/practice/sumo/share/sumo/tools/2023-05-16-02-49-02/osm.net.xml.gz"/>
    <remove-loops value="True"/>
    <route-file value="/Users/stepa-kos/Desktop/practice/sumo/share/sumo/tools/2023-05-16-02-49-02/osm.bus.rou.xml"/>
    <trip-attributes value="departLane=&quot;best&quot;"/>
    <output-trip-file value="/Users/stepa-kos/Desktop/practice/sumo/share/sumo/tools/2023-05-16-02-49-02/osm.bus.trips.xml"/>
    <prefix value="bus"/>
    <validate value="True"/>
    <vclass value="bus"/>
    <vehicle-class value="bus"/>
</configuration>
-->

<routes xmlns:xsi="http://www.w3.org/2001/XMLSchema-instance" xsi:noNamespaceSchemaLocation="http://sumo.dlr.de/xsd/routes_file.xsd">
    <vType id="bus_bus" vClass="bus"/>
    <trip id="bus0" depart="0.00" from="26318625#11" to="1168957216#4" departLane="best" type="bus_bus"/>
</routes>
